/*--------------------------------*- C++ -*----------------------------------*\
| =========                 |                                                 |
| \\      /  F ield         | OpenFOAM: The Open Source CFD Toolbox           |
|  \\    /   O peration     | Version:  4.x                                   |
|   \\  /    A nd           | Web:      www.OpenFOAM.org                      |
|    \\/     M anipulation  |                                                 |
\*---------------------------------------------------------------------------*/
FoamFile
{
    version     2.0;
    format      ascii;
    class       dictionary;
    location    "constant";
    object      MRFProperties;
}
// * * * * * * * * * * * * * * * * * * * * * * * * * * * * * * * * * * * * * //

MRF1_blades
{
    cellZone    zone0;
    active      yes;

    // Fixed patches (by default they 'move' with the MRF zone)
    nonRotatingPatches (c1 c2);

    origin    (0 0 0);
    axis      (1 0 0);
    omega     constant -62.8;
}


// ************************************************************************* //
