/*--------------------------------*- C++ -*----------------------------------*\
| =========                 |                                                 |
| \\      /  F ield         | OpenFOAM: The Open Source CFD Toolbox           |
|  \\    /   O peration     | Version:  2.3.0                                 |
|   \\  /    A nd           | Web:      www.OpenFOAM.org                      |
|    \\/     M anipulation  |                                                 |
\*---------------------------------------------------------------------------*/
FoamFile
{
    version     2.0;
    format      ascii;
    class       volScalarField;
    location    "0";
    object      nut;
}
// * * * * * * * * * * * * * * * * * * * * * * * * * * * * * * * * * * * * * //

dimensions      [0 2 -1 0 0 0 0];

internalField   uniform 0.0017146;

boundaryField
{

    xmin
    {
        type            calculated;
        value           $internalField;
    }
    xmax
    {
        type            calculated;
        value           $internalField;
    }
    ymin
    {
        type            calculated;
        value           $internalField;
    }
    ymax
    {
        type            calculated;
        value           $internalField;
    }
    zmin
    {
        type            calculated;
        value           $internalField;
    }
    zmax
    {
        type            calculated;
        value           $internalField;
    }

    sphere
    {
        type            nutkWallFunction;
        value           $internalField;
    }

}

// ************************************************************************* //
