/*--------------------------------*- C++ -*----------------------------------*\
  =========                 |
  \\      /  F ield         | OpenFOAM: The Open Source CFD Toolbox
   \\    /   O peration     | Website:  https://openfoam.org
    \\  /    A nd           | Version:  10
     \\/     M anipulation  |
\*---------------------------------------------------------------------------*/
FoamFile
{
    version     0.0;
    format      ascii;
    class       dictionary;
    location    "constant";
    object      porosityProperties;
}
// * * * * * * * * * * * * * * * * * * * * * * * * * * * * * * * * * * * * * //

porosity1
{
    type            DarcyForchheimer;

    cellZone        zone0;

    d   (1e6 1e6 1e6);
    f   (0 0 0);

    coordinateSystem
    {
        type    cartesian;
        origin  (0 0 0);
        coordinateRotation
        {
            type    axesRotation;
            e1      (1 0 0);
            e2      (0 1 0);
        }
    }
}


// ************************************************************************* //
