/*--------------------------------*- C++ -*----------------------------------*\
| =========                 |                                                 |
| \\      /  F ield         | OpenFOAM: The Open Source CFD Toolbox           |
|  \\    /   O peration     | Version:  2.3.0                                 |
|   \\  /    A nd           | Web:      www.OpenFOAM.org                      |
|    \\/     M anipulation  |                                                 |
\*---------------------------------------------------------------------------*/
FoamFile
{
    version     2.0;
    format      ascii;
    class       volScalarField;
    object      nut;
}
// * * * * * * * * * * * * * * * * * * * * * * * * * * * * * * * * * * * * * //

dimensions      [0 2 -1 0 0 0 0];

internalField   uniform 0;

boundaryField
{

    xmin
    {
        type            calculated;
        value           uniform 0;
    }
    xmax
    {
        type            calculated;
        value           uniform 0;
    }
    ymin
    {
        type            calculated;
        value           uniform 0;
    }
    ymax
    {
        type            calculated;
        value           uniform 0;
    }
    zmin
    {
        type            calculated;
        value           uniform 0;
    }
    zmax
    {
        type            calculated;
        value           uniform 0;
    }
    blades
    {
        type            nutkWallFunction;
        value           uniform 0;
    }
    c1
    {
        type            cyclic;
    }
    c2
    {
        type            cyclic;
    }

}

// ************************************************************************* //
